Version 4
SHEET 1 880 680
WIRE 224 32 0 32
WIRE 224 48 224 32
WIRE 304 48 224 48
WIRE 224 64 224 48
WIRE 176 80 128 80
WIRE 128 96 128 80
WIRE -96 112 -128 112
WIRE 32 112 -16 112
WIRE 304 128 224 128
WIRE -128 144 -128 112
WIRE 32 176 32 112
WIRE 80 176 32 176
WIRE 128 208 128 192
WIRE 128 208 112 208
WIRE 176 208 176 80
WIRE 224 208 224 128
WIRE 224 208 176 208
WIRE -128 256 -128 224
WIRE 0 256 0 32
WIRE 16 256 0 256
WIRE 112 256 112 208
WIRE 112 256 16 256
WIRE 16 288 16 256
FLAG 16 288 0
FLAG -128 256 0
SYMBOL AutoGenerated\\IKW40N120H3_L1 112 160 R0
SYMATTR InstName U1
SYMBOL current 304 48 R0
WINDOW 123 0 0 Left 0
WINDOW 39 0 0 Left 0
SYMATTR InstName I1
SYMATTR Value 5
SYMBOL diode 240 128 R180
WINDOW 0 24 64 Left 2
WINDOW 3 -68 -38 Left 2
SYMATTR InstName D1
SYMATTR Value VS-E5PH7506
SYMBOL voltage -128 128 R0
WINDOW 3 -53 201 Left 2
WINDOW 123 0 0 Left 0
WINDOW 39 0 0 Left 0
SYMATTR Value PULSE(-8 15 0 1n 1n {ton} {ts})
SYMATTR InstName V1
SYMBOL res 0 96 R90
WINDOW 0 0 56 VBottom 2
WINDOW 3 -53 58 VTop 2
SYMATTR InstName R1
SYMATTR Value {Rgate}
TEXT 416 104 Left 2 !.param D=0.5
TEXT -184 352 Left 2 !.tran 1m
TEXT 416 40 Left 2 !.param fs = 5k
TEXT 416 72 Left 2 !.param ts = 1/fs
TEXT 416 136 Left 2 !.param ton = ts*D
TEXT 416 168 Left 2 !.param Rgate = 75
